test_parallel/bench_500_houses.glm
// Synthetic residential benchmark: 500 independent houses
// Each house has its own triplex_meter (no shared parent state).
// No tape recorders - runtime is purely in object sync.

#set minimum_timestep=60;

clock {
    timezone PST+8PDT;
    starttime "2000-01-01 00:00:00";
    stoptime  "2000-01-08 00:00:00";
}

module residential {
    implicit_enduses NONE;
}
module climate;
module powerflow;

object climate {
    name climate1;
    tmyfile "WA-Yakima.tmy2";
    interpolate QUADRATIC;
}

object triplex_meter { name meter_0; phases AS; nominal_voltage 120; }
object house {
    name house_0;
    parent meter_0;
    floor_area 2206.7 sf;
    ceiling_height 8.1 ft;
    Rroof 28.3;
    Rwall 14.5;
    Rfloor 21.0;
    Rwindows 4.71;
    air_change_per_hour 1.37;
    heating_setpoint 68.3 degF;
    cooling_setpoint 75.7 degF;
    air_temperature 68.2 degF;
    mass_temperature 68.2 degF;
    heating_system_type RESISTANCE;
    cooling_system_type ELECTRIC;
    weather climate1;
}

object triplex_meter { name meter_1; phases AS; nominal_voltage 120; }
object house {
    name house_1;
    parent meter_1;
    floor_area 1281.0 sf;
    ceiling_height 10.0 ft;
    Rroof 20.8;
    Rwall 14.0;
    Rfloor 19.7;
    Rwindows 4.18;
    air_change_per_hour 0.56;
    heating_setpoint 70.4 degF;
    cooling_setpoint 77.2 degF;
    air_temperature 68.1 degF;
    mass_temperature 68.1 degF;
    heating_system_type RESISTANCE;
    cooling_system_type ELECTRIC;
    weather climate1;
}

object triplex_meter { name meter_2; phases AS; nominal_voltage 120; }
object house {
    name house_2;
    parent meter_2;
    floor_area 2572.8 sf;
    ceiling_height 10.8 ft;
    Rroof 30.2;
    Rwall 13.1;
    Rfloor 24.4;
    Rwindows 3.35;
    air_change_per_hour 0.41;
    heating_setpoint 68.4 degF;
    cooling_setpoint 77.4 degF;
    air_temperature 72.8 degF;
    mass_temperature 72.8 degF;
    heating_system_type RESISTANCE;
    cooling_system_type ELECTRIC;
    weather climate1;
}

object triplex_meter { name meter_3; phases AS; nominal_voltage 120; }
object house {
    name house_3;
    parent meter_3;
    floor_area 2575.7 sf;
    ceiling_height 10.9 ft;
    Rroof 36.1;
    Rwall 29.5;
    Rfloor 15.7;
    Rwindows 4.21;
    air_change_per_hour 1.30;
    heating_setpoint 70.5 degF;
    cooling_setpoint 77.4 degF;
    air_temperature 72.6 degF;
    mass_temperature 72.6 degF;
    heating_system_type RESISTANCE;
    cooling_system_type ELECTRIC;
    weather climate1;
}

object triplex_meter { name meter_4; phases AS; nominal_voltage 120; }
object house {
    name house_4;
    parent meter_4;
    floor_area 2350.1 sf;
    ceiling_height 8.2 ft;
    Rroof 26.8;
    Rwall 15.8;
    Rfloor 11.2;
    Rwindows 2.93;
    air_change_per_hour 0.42;
    heating_setpoint 69.1 degF;
    cooling_setpoint 76.5 degF;
    air_temperature 70.9 degF;
    mass_temperature 70.9 degF;
    heating_system_type RESISTANCE;
    cooling_system_type ELECTRIC;
    weather climate1;
}

object triplex_meter { name meter_5; phases AS; nominal_voltage 120; }
object house {
    name house_5;
    parent meter_5;
    floor_area 1614.4 sf;
    ceiling_height 8.8 ft;
    Rroof 28.0;
    Rwall 28.7;
    Rfloor 19.7;
    Rwindows 4.44;
    air_change_per_hour 0.51;
    heating_setpoint 70.9 degF;
    cooling_setpoint 74.7 degF;
    air_temperature 71.0 degF;
    mass_temperature 71.0 degF;
    heating_system_type RESISTANCE;
    cooling_system_type ELECTRIC;
    weather climate1;
}

object triplex_meter { name meter_6; phases AS; nominal_voltage 120; }
object house {
    name house_6;
    parent meter_6;
    floor_area 2977.0 sf;
    ceiling_height 10.6 ft;
    Rroof 36.7;
    Rwall 23.7;
    Rfloor 22.6;
    Rwindows 5.10;
    air_change_per_hour 0.57;
    heating_setpoint 68.1 degF;
    cooling_setpoint 75.3 degF;
    air_temperature 70.1 degF;
    mass_temperature 70.1 degF;
    heating_system_type RESISTANCE;
    cooling_system_type ELECTRIC;
    weather climate1;
}

object triplex_meter { name meter_7; phases AS; nominal_voltage 120; }
object house {
    name house_7;
    parent meter_7;
    floor_area 1264.2 sf;
    ceiling_height 11.8 ft;
    Rroof 46.3;
    Rwall 16.3;
    Rfloor 19.8;
    Rwindows 3.58;
    air_change_per_hour 1.40;
    heating_setpoint 69.8 degF;
    cooling_setpoint 75.1 degF;
    air_temperature 70.0 degF;
    mass_temperature 70.0 degF;
    heating_system_type RESISTANCE;
    cooling_system_type ELECTRIC;
    weather climate1;
}

object triplex_meter { name meter_8; phases AS; nominal_voltage 120; }
object house {
    name house_8;
    parent meter_8;
    floor_area 2035.0 sf;
    ceiling_height 9.1 ft;
    Rroof 37.5;
    Rwall 28.0;
    Rfloor 16.0;
    Rwindows 2.88;
    air_change_per_hour 1.50;
    heating_setpoint 70.0 degF;
    cooling_setpoint 74.4 degF;
    air_temperature 68.4 degF;
    mass_temperature 68.4 degF;
    heating_system_type RESISTANCE;
    cooling_system_type ELECTRIC;
    weather climate1;
}

object triplex_meter { name meter_9; phases AS; nominal_voltage 120; }
object house {
    name house_9;
    parent meter_9;
    floor_area 1041.2 sf;
    ceiling_height 10.5 ft;
    Rroof 43.8;
    Rwall 18.4;
    Rfloor 11.0;
    Rwindows 3.53;
    air_change_per_hour 1.50;
    heating_setpoint 70.1 degF;
    cooling_setpoint 77.9 degF;
    air_temperature 74.9 degF;
    mass_temperature 74.9 degF;
    heating_system_type RESISTANCE;
    cooling_system_type ELECTRIC;
    weather climate1;
}

object triplex_meter { name meter_10; phases AS; nominal_voltage 120; }
object house {
    name house_10;
    parent meter_10;
    floor_area 825.3 sf;
    ceiling_height 10.9 ft;
    Rroof 40.5;
    Rwall 20.7;
    Rfloor 14.0;
    Rwindows 4.56;
    air_change_per_hour 0.43;
    heating_setpoint 69.7 degF;
    cooling_setpoint 75.8 degF;
    air_temperature 75.6 degF;
    mass_temperature 75.6 degF;
    heating_system_type RESISTANCE;
    cooling_system_type ELECTRIC;
    weather climate1;
}

object triplex_meter { name meter_11; phases AS; nominal_voltage 120; }
object house {
    name house_11;
    parent meter_11;
    floor_area 2726.9 sf;
    ceiling_height 9.1 ft;
    Rroof 35.0;
    Rwall 13.6;
    Rfloor 23.7;
    Rwindows 5.48;
    air_change_per_hour 0.66;
    heating_setpoint 70.6 degF;
    cooling_setpoint 76.4 degF;
    air_temperature 69.2 degF;
    mass_temperature 69.2 degF;
    heating_system_type RESISTANCE;
    cooling_system_type ELECTRIC;
    weather climate1;
}

object triplex_meter { name meter_12; phases AS; nominal_voltage 120; }
object house {
    name house_12;
    parent meter_12;
    floor_area 2477.5 sf;
    ceiling_height 10.2 ft;
    Rroof 43.4;
    Rwall 20.6;
    Rfloor 10.0;
    Rwindows 3.30;
    air_change_per_hour 0.32;
    heating_setpoint 71.7 degF;
    cooling_setpoint 77.5 degF;
    air_temperature 74.7 degF;
    mass_temperature 74.7 degF;
    heating_system_type RESISTANCE;
    cooling_system_type ELECTRIC;
    weather climate1;
}

object triplex_meter { name meter_13; phases AS; nominal_voltage 120; }
object house {
    name house_13;
    parent meter_13;
    floor_area 1476.5 sf;
    ceiling_height 8.2 ft;
    Rroof 46.3;
    Rwall 28.9;
    Rfloor 11.3;
    Rwindows 3.94;
    air_change_per_hour 0.38;
    heating_setpoint 71.0 degF;
    cooling_setpoint 77.1 degF;
    air_temperature 69.0 degF;
    mass_temperature 69.0 degF;
    heating_system_type RESISTANCE;
    cooling_system_type ELECTRIC;
    weather climate1;
}

object triplex_meter { name meter_14; phases AS; nominal_voltage 120; }
object house {
    name house_14;
    parent meter_14;
    floor_area 1845.6 sf;
    ceiling_height 10.2 ft;
    Rroof 28.0;
    Rwall 27.4;
    Rfloor 16.3;
    Rwindows 2.85;
    air_change_per_hour 0.95;
    heating_setpoint 70.9 degF;
    cooling_setpoint 74.8 degF;
    air_temperature 70.5 degF;
    mass_temperature 70.5 degF;
    heating_system_type RESISTANCE;
    cooling_system_type ELECTRIC;
    weather climate1;
}

object triplex_meter { name meter_15; phases AS; nominal_voltage 120; }
object house {
    name house_15;
    parent meter_15;
    floor_area 2989.3 sf;
    ceiling_height 10.6 ft;
    Rroof 33.1;
    Rwall 20.4;
    Rfloor 11.8;
    Rwindows 2.90;
    air_change_per_hour 0.71;
    heating_setpoint 70.4 degF;
    cooling_setpoint 74.9 degF;
    air_temperature 69.8 degF;
    mass_temperature 69.8 degF;
    heating_system_type RESISTANCE;
    cooling_system_type ELECTRIC;
    weather climate1;
}

object triplex_meter { name meter_16; phases AS; nominal_voltage 120; }
object house {
    name house_16;
    parent meter_16;
    floor_area 956.2 sf;
    ceiling_height 10.5 ft;
    Rroof 26.9;
    Rwall 28.1;
    Rfloor 22.9;
    Rwindows 2.28;
    air_change_per_hour 0.59;
    heating_setpoint 70.7 degF;
    cooling_setpoint 74.9 degF;
    air_temperature 69.1 degF;
    mass_temperature 69.1 degF;
    heating_system_type RESISTANCE;
    cooling_system_type ELECTRIC;
    weather climate1;
}

object triplex_meter { name meter_17; phases AS; nominal_voltage 120; }
object house {
    name house_17;
    parent meter_17;
    floor_area 2858.1 sf;
    ceiling_height 10.3 ft;
    Rroof 34.2;
    Rwall 25.7;
    Rfloor 22.1;
    Rwindows 2.76;
    air_change_per_hour 0.42;
    heating_setpoint 69.7 degF;
    cooling_setpoint 75.7 degF;
    air_temperature 71.7 degF;
    mass_temperature 71.7 degF;
    heating_system_type RESISTANCE;
    cooling_system_type ELECTRIC;
    weather climate1;
}

object triplex_meter { name meter_18; phases AS; nominal_voltage 120; }
object house {
    name house_18;
    parent meter_18;
    floor_area 2404.0 sf;
    ceiling_height 10.7 ft;
    Rroof 49.5;
    Rwall 12.0;
    Rfloor 16.0;
    Rwindows 3.36;
    air_change_per_hour 1.33;
    heating_setpoint 69.0 degF;
    cooling_setpoint 74.8 degF;
    air_temperature 71.6 degF;
    mass_temperature 71.6 degF;
    heating_system_type RESISTANCE;
    cooling_system_type ELECTRIC;
    weather climate1;
}

object triplex_meter { name meter_19; phases AS; nominal_voltage 120; }
object house {
    name house_19;
    parent meter_19;
    floor_area 1728.1 sf;
    ceiling_height 9.1 ft;
    Rroof 27.5;
    Rwall 28.5;
    Rfloor 16.6;
    Rwindows 5.45;
    air_change_per_hour 0.96;
    heating_setpoint 68.2 degF;
    cooling_setpoint 78.0 degF;
    air_temperature 74.7 degF;
    mass_temperature 74.7 degF;
    heating_system_type RESISTANCE;
    cooling_system_type ELECTRIC;
    weather climate1;
}

object triplex_meter { name meter_20; phases AS; nominal_voltage 120; }
object house {
    name house_20;
    parent meter_20;
    floor_area 2931.8 sf;
    ceiling_height 11.7 ft;
    Rroof 45.5;
    Rwall 13.3;
    Rfloor 17.3;
    Rwindows 2.85;
    air_change_per_hour 0.78;
    heating_setpoint 68.2 degF;
    cooling_setpoint 75.5 degF;
    air_temperature 75.9 degF;
    mass_temperature 75.9 degF;
    heating_system_type RESISTANCE;
    cooling_system_type ELECTRIC;
    weather climate1;
}

object triplex_meter { name meter_21; phases AS; nominal_voltage 120; }
object house {
    name house_21;
    parent meter_21;
    floor_area 1383.4 sf;
    ceiling_height 11.1 ft;
    Rroof 33.7;
    Rwall 18.5;
    Rfloor 24.4;
    Rwindows 5.98;
    air_change_per_hour 0.97;
    heating_setpoint 70.9 degF;
    cooling_setpoint 74.6 degF;
    air_temperature 70.4 degF;
    mass_temperature 70.4 degF;
    heating_system_type RESISTANCE;
    cooling_system_type ELECTRIC;
    weather climate1;
}

object triplex_meter { name meter_22; phases AS; nominal_voltage 120; }
object house {
    name house_22;
    parent meter_22;
    floor_area 2931.2 sf;
    ceiling_height 10.3 ft;
    Rroof 36.3;
    Rwall 25.0;
    Rfloor 10.9;
    Rwindows 4.34;
    air_change_per_hour 0.90;
    heating_setpoint 71.4 degF;
    cooling_setpoint 74.6 degF;
    air_temperature 75.7 degF;
    mass_temperature 75.7 degF;
    heating_system_type RESISTANCE;
    cooling_system_type ELECTRIC;
    weather climate1;
}

object triplex_meter { name meter_23; phases AS; nominal_voltage 120; }
object house {
    name house_23;
    parent meter_23;
    floor_area 976.2 sf;
    ceiling_height 8.7 ft;
    Rroof 37.9;
    Rwall 23.5;
    Rfloor 13.5;
    Rwindows 2.48;
    air_change_per_hour 1.37;
    heating_setpoint 69.0 degF;
    cooling_setpoint 76.4 degF;
    air_temperature 73.0 degF;
    mass_temperature 73.0 degF;
    heating_system_type RESISTANCE;
    cooling_system_type ELECTRIC;
    weather climate1;
}

object triplex_meter { name meter_24; phases AS; nominal_voltage 120; }
object house {
    name house_24;
    parent meter_24;
    floor_area 1722.3 sf;
    ceiling_height 10.3 ft;
    Rroof 35.7;
    Rwall 28.7;
    Rfloor 13.1;
    Rwindows 4.86;
    air_change_per_hour 0.59;
    heating_setpoint 69.6 degF;
    cooling_setpoint 76.7 degF;
    air_temperature 70.4 degF;
    mass_temperature 70.4 degF;
    heating_system_type RESISTANCE;
    cooling_system_type ELECTRIC;
    weather climate1;
}

object triplex_meter { name meter_25; phases AS; nominal_voltage 120; }
object house {
    name house_25;
    parent meter_25;
    floor_area 1495.6 sf;
    ceiling_height 11.0 ft;
    Rroof 22.2;
    Rwall 19.2;
    Rfloor 25.0;
    Rwindows 5.98;
    air_change_per_hour 0.39;
    heating_setpoint 68.9 degF;
    cooling_setpoint 75.1 degF;
    air_temperature 75.5 degF;
    mass_temperature 75.5 degF;
    heating_system_type RESISTANCE;
    cooling_system_type ELECTRIC;
    weather climate1;
}

object triplex_meter { name meter_26; phases AS; nominal_voltage 120; }
object house {
    name house_26;
    parent meter_26;
    floor_area 2737.9 sf;
    ceiling_height 11.5 ft;
    Rroof 31.1;
    Rwall 13.2;
    Rfloor 22.5;
    Rwindows 4.81;
    air_change_per_hour 1.03;
    heating_setpoint 71.9 degF;
    cooling_setpoint 76.6 degF;
    air_temperature 68.1 degF;
    mass_temperature 68.1 degF;
    heating_system_type RESISTANCE;
    cooling_system_type ELECTRIC;
    weather climate1;
}

object triplex_meter { name meter_27; phases AS; nominal_voltage 120; }
object house {
    name house_27;
    parent meter_27;
    floor_area 2597.6 sf;
    ceiling_height 9.2 ft;
    Rroof 39.9;
    Rwall 28.8;
    Rfloor 12.0;
    Rwindows 2.46;
    air_change_per_hour 0.43;
    heating_setpoint 70.2 degF;
    cooling_setpoint 75.1 degF;
    air_temperature 72.8 degF;
    mass_temperature 72.8 degF;
    heating_system_type RESISTANCE;
    cooling_system_type ELECTRIC;
    weather climate1;
}

object triplex_meter { name meter_28; phases AS; nominal_voltage 120; }
object house {
    name house_28;
    parent meter_28;
    floor_area 2378.7 sf;
    ceiling_height 8.8 ft;
    Rroof 39.0;
    Rwall 15.3;
    Rfloor 17.3;
    Rwindows 5.62;
    air_change_per_hour 1.32;
    heating_setpoint 68.4 degF;
    cooling_setpoint 75.7 degF;
    air_temperature 70.2 degF;
    mass_temperature 70.2 degF;
    heating_system_type RESISTANCE;
    cooling_system_type ELECTRIC;
    weather climate1;
}

object triplex_meter { name meter_29; phases AS; nominal_voltage 120; }
object house {
    name house_29;
    parent meter_29;
    floor_area 807.8 sf;
    ceiling_height 11.1 ft;
    Rroof 39.1;
    Rwall 15.2;
    Rfloor 21.1;
    Rwindows 4.21;
    air_change_per_hour 0.81;
    heating_setpoint 68.0 degF;
    cooling_setpoint 74.3 degF;
    air_temperature 75.1 degF;
    mass_temperature 75.1 degF;
    heating_system_type RESISTANCE;
    cooling_system_type ELECTRIC;
    weather climate1;
}

object triplex_meter { name meter_30; phases AS; nominal_voltage 120; }
object house {
    name house_30;
    parent meter_30;
    floor_area 2788.6 sf;
    ceiling_height 10.2 ft;
    Rroof 45.0;
    Rwall 21.7;
    Rfloor 12.2;
    Rwindows 2.51;
    air_change_per_hour 0.67;
    heating_setpoint 71.6 degF;
    cooling_setpoint 77.2 degF;
    air_temperature 74.9 degF;
    mass_temperature 74.9 degF;
    heating_system_type RESISTANCE;
    cooling_system_type ELECTRIC;
    weather climate1;
}

object triplex_meter { name meter_31; phases AS; nominal_voltage 120; }
object house {
    name house_31;
    parent meter_31;
    floor_area 2777.6 sf;
    ceiling_height 8.8 ft;
    Rroof 27.5;
    Rwall 12.1;
    Rfloor 21.7;
    Rwindows 5.54;
    air_change_per_hour 0.79;
    heating_setpoint 70.5 degF;
    cooling_setpoint 74.6 degF;
    air_temperature 75.4 degF;
    mass_temperature 75.4 degF;
    heating_system_type RESISTANCE;
    cooling_system_type ELECTRIC;
    weather climate1;
}

object triplex_meter { name meter_32; phases AS; nominal_voltage 120; }
object house {
    name house_32;
    parent meter_32;
    floor_area 2702.1 sf;
    ceiling_height 11.9 ft;
    Rroof 44.3;
    Rwall 27.6;
    Rfloor 10.4;
    Rwindows 4.95;
    air_change_per_hour 0.70;
    heating_setpoint 71.7 degF;
    cooling_setpoint 77.2 degF;
    air_temperature 74.9 degF;
    mass_temperature 74.9 degF;
    heating_system_type RESISTANCE;
    cooling_system_type ELECTRIC;
    weather climate1;
}

object triplex_meter { name meter_33; phases AS; nominal_voltage 120; }
object house {
    name house_33;
    parent meter_33;
    floor_area 2583.6 sf;
    ceiling_height 9.1 ft;
    Rroof 43.6;
    Rwall 12.2;
    Rfloor 23.1;
    Rwindows 5.43;
    air_change_per_hour 0.57;
    heating_setpoint 71.3 degF;
    cooling_setpoint 75.8 degF;
    air_temperature 70.4 degF;
    mass_temperature 70.4 degF;
    heating_system_type RESISTANCE;
    cooling_system_type ELECTRIC;
    weather climate1;
}

object triplex_meter { name meter_34; phases AS; nominal_voltage 120; }
object house {
    name house_34;
    parent meter_34;
    floor_area 2549.8 sf;
    ceiling_height 8.9 ft;
    Rroof 20.7;
    Rwall 13.9;
    Rfloor 14.9;
    Rwindows 5.46;
    air_change_per_hour 1.46;
    heating_setpoint 69.1 degF;
    cooling_setpoint 76.6 degF;
    air_temperature 71.2 degF;
    mass_temperature 71.2 degF;
    heating_system_type RESISTANCE;
    cooling_system_type ELECTRIC;
    weather climate1;
}

object triplex_meter { name meter_35; phases AS; nominal_voltage 120; }
object house {
    name house_35;
    parent meter_35;
    floor_area 2958.5 sf;
    ceiling_height 10.1 ft;
    Rroof 48.2;
    Rwall 12.3;
    Rfloor 24.6;
    Rwindows 2.71;
    air_change_per_hour 1.46;
    heating_setpoint 69.1 degF;
    cooling_setpoint 74.4 degF;
    air_temperature 71.5 degF;
    mass_temperature 71.5 degF;
    heating_system_type RESISTANCE;
    cooling_system_type ELECTRIC;
    weather climate1;
}

object triplex_meter { name meter_36; phases AS; nominal_voltage 120; }
object house {
    name house_36;
    parent meter_36;
    floor_area 2402.8 sf;
    ceiling_height 9.3 ft;
    Rroof 38.2;
    Rwall 20.2;
    Rfloor 15.8;
    Rwindows 4.31;
    air_change_per_hour 0.61;
    heating_setpoint 70.8 degF;
    cooling_setpoint 74.0 degF;
    air_temperature 75.4 degF;
    mass_temperature 75.4 degF;
    heating_system_type RESISTANCE;
    cooling_system_type ELECTRIC;
    weather climate1;
}

object triplex_meter { name meter_37; phases AS; nominal_voltage 120; }
object house {
    name house_37;
    parent meter_37;
    floor_area 1984.6 sf;
    ceiling_height 10.9 ft;
    Rroof 42.3;
    Rwall 23.4;
    Rfloor 15.5;
    Rwindows 2.28;
    air_change_per_hour 1.10;
    heating_setpoint 69.3 degF;
    cooling_setpoint 75.3 degF;
    air_temperature 74.8 degF;
    mass_temperature 74.8 degF;
    heating_system_type RESISTANCE;
    cooling_system_type ELECTRIC;
    weather climate1;
}

object triplex_meter { name meter_38; phases AS; nominal_voltage 120; }
object house {
    name house_38;
    parent meter_38;
    floor_area 2383.5 sf;
    ceiling_height 9.2 ft;
    Rroof 29.3;
    Rwall 18.2;
    Rfloor 16.0;
    Rwindows 3.18;
    air_change_per_hour 0.45;
    heating_setpoint 69.7 degF;
    cooling_setpoint 77.8 degF;
    air_temperature 73.4 degF;
    mass_temperature 73.4 degF;
    heating_system_type RESISTANCE;
    cooling_system_type ELECTRIC;
    weather climate1;
}

object triplex_meter { name meter_39; phases AS; nominal_voltage 120; }
object house {
    name house_39;
    parent meter_39;
    floor_area 2786.2 sf;
    ceiling_height 10.5 ft;
    Rroof 29.0;
    Rwall 21.0;
    Rfloor 10.0;
    Rwindows 3.15;
    air_change_per_hour 0.82;
    heating_setpoint 70.3 degF;
    cooling_setpoint 76.6 degF;
    air_temperature 71.7 degF;
    mass_temperature 71.7 degF;
    heating_system_type RESISTANCE;
    cooling_system_type ELECTRIC;
    weather climate1;
}

object triplex_meter { name meter_40; phases AS; nominal_voltage 120; }
object house {
    name house_40;
    parent meter_40;
    floor_area 1772.8 sf;
    ceiling_height 8.9 ft;
    Rroof 34.2;
    Rwall 28.0;
    Rfloor 21.9;
    Rwindows 2.68;
    air_change_per_hour 0.40;
    heating_setpoint 70.1 degF;
    cooling_setpoint 76.5 degF;
    air_temperature 70.7 degF;
    mass_temperature 70.7 degF;
    heating_system_type RESISTANCE;
    cooling_system_type ELECTRIC;
    weather climate1;
}

object triplex_meter { name meter_41; phases AS; nominal_voltage 120; }
object house {
    name house_41;
    parent meter_41;
    floor_area 2600.5 sf;
    ceiling_height 11.0 ft;
    Rroof 40.2;
    Rwall 14.5;
    Rfloor 13.0;
    Rwindows 2.10;
    air_change_per_hour 0.59;
    heating_setpoint 69.9 degF;
    cooling_setpoint 77.4 degF;
    air_temperature 68.6 degF;
    mass_temperature 68.6 degF;
    heating_system_type RESISTANCE;
    cooling_system_type ELECTRIC;
    weather climate1;
}

object triplex_meter { name meter_42; phases AS; nominal_voltage 120; }
object house {
    name house_42;
    parent meter_42;
    floor_area 1711.8 sf;
    ceiling_height 10.5 ft;
    Rroof 25.8;
    Rwall 23.9;
    Rfloor 17.4;
    Rwindows 2.98;
    air_change_per_hour 1.09;
    heating_setpoint 68.0 degF;
    cooling_setpoint 77.0 degF;
    air_temperature 74.2 degF;
    mass_temperature 74.2 degF;
    heating_system_type RESISTANCE;
    cooling_system_type ELECTRIC;
    weather climate1;
}

object triplex_meter { name meter_43; phases AS; nominal_voltage 120; }
object house {
    name house_43;
    parent meter_43;
    floor_area 1034.5 sf;
    ceiling_height 9.7 ft;
    Rroof 25.3;
    Rwall 29.2;
    Rfloor 17.8;
    Rwindows 2.20;
    air_change_per_hour 0.60;
    heating_setpoint 71.4 degF;
    cooling_setpoint 75.8 degF;
    air_temperature 74.4 degF;
    mass_temperature 74.4 degF;
    heating_system_type RESISTANCE;
    cooling_system_type ELECTRIC;
    weather climate1;
}

object triplex_meter { name meter_44; phases AS; nominal_voltage 120; }
object house {
    name house_44;
    parent meter_44;
    floor_area 2268.7 sf;
    ceiling_height 12.0 ft;
    Rroof 37.9;
    Rwall 29.0;
    Rfloor 23.4;
    Rwindows 4.45;
    air_change_per_hour 1.16;
    heating_setpoint 70.0 degF;
    cooling_setpoint 77.3 degF;
    air_temperature 72.4 degF;
    mass_temperature 72.4 degF;
    heating_system_type RESISTANCE;
    cooling_system_type ELECTRIC;
    weather climate1;
}

object triplex_meter { name meter_45; phases AS; nominal_voltage 120; }
object house {
    name house_45;
    parent meter_45;
    floor_area 2773.9 sf;
    ceiling_height 11.0 ft;
    Rroof 34.2;
    Rwall 15.2;
    Rfloor 13.7;
    Rwindows 4.55;
    air_change_per_hour 1.22;
    heating_setpoint 70.1 degF;
    cooling_setpoint 76.5 degF;
    air_temperature 70.2 degF;
    mass_temperature 70.2 degF;
    heating_system_type RESISTANCE;
    cooling_system_type ELECTRIC;
    weather climate1;
}

object triplex_meter { name meter_46; phases AS; nominal_voltage 120; }
object house {
    name house_46;
    parent meter_46;
    floor_area 970.5 sf;
    ceiling_height 9.1 ft;
    Rroof 28.2;
    Rwall 16.4;
    Rfloor 18.1;
    Rwindows 2.55;
    air_change_per_hour 0.58;
    heating_setpoint 70.8 degF;
    cooling_setpoint 76.8 degF;
    air_temperature 68.5 degF;
    mass_temperature 68.5 degF;
    heating_system_type RESISTANCE;
    cooling_system_type ELECTRIC;
    weather climate1;
}

object triplex_meter { name meter_47; phases AS; nominal_voltage 120; }
object house {
    name house_47;
    parent meter_47;
    floor_area 1696.7 sf;
    ceiling_height 10.2 ft;
    Rroof 32.5;
    Rwall 14.1;
    Rfloor 16.3;
    Rwindows 5.62;
    air_change_per_hour 1.00;
    heating_setpoint 70.8 degF;
    cooling_setpoint 77.4 degF;
    air_temperature 74.1 degF;
    mass_temperature 74.1 degF;
    heating_system_type RESISTANCE;
    cooling_system_type ELECTRIC;
    weather climate1;
}

object triplex_meter { name meter_48; phases AS; nominal_voltage 120; }
object house {
    name house_48;
    parent meter_48;
    floor_area 1636.8 sf;
    ceiling_height 8.0 ft;
    Rroof 30.6;
    Rwall 25.1;
    Rfloor 22.8;
    Rwindows 5.81;
    air_change_per_hour 0.80;
    heating_setpoint 71.0 degF;
    cooling_setpoint 76.2 degF;
    air_temperature 72.8 degF;
    mass_temperature 72.8 degF;
    heating_system_type RESISTANCE;
    cooling_system_type ELECTRIC;
    weather climate1;
}

object triplex_meter { name meter_49; phases AS; nominal_voltage 120; }
object house {
    name house_49;
    parent meter_49;
    floor_area 1285.2 sf;
    ceiling_height 8.9 ft;
    Rroof 33.1;
    Rwall 10.6;
    Rfloor 15.0;
    Rwindows 4.72;
    air_change_per_hour 0.79;
    heating_setpoint 68.7 degF;
    cooling_setpoint 75.9 degF;
    air_temperature 69.0 degF;
    mass_temperature 69.0 degF;
    heating_system_type RESISTANCE;
    cooling_system_type ELECTRIC;
    weather climate1;
}

object triplex_meter { name meter_50; phases AS; nominal_voltage 120; }
object house {
    name house_50;
    parent meter_50;
    floor_area 2169.0 sf;
    ceiling_height 8.1 ft;
    Rroof 31.8;
    Rwall 21.3;
    Rfloor 10.4;
    Rwindows 4.57;
    air_change_per_hour 0.46;
    heating_setpoint 69.8 degF;
    cooling_setpoint 74.2 degF;
    air_temperature 71.0 degF;
    mass_temperature 71.0 degF;
    heating_system_type RESISTANCE;
    cooling_system_type ELECTRIC;
    weather climate1;
}

object triplex_meter { name meter_51; phases AS; nominal_voltage 120; }
object house {
    name house_51;
    parent meter_51;
    floor_area 1265.7 sf;
    ceiling_height 9.3 ft;
    Rroof 42.8;
    Rwall 17.6;
    Rfloor 21.3;
    Rwindows 5.33;
    air_change_per_hour 0.60;
    heating_setpoint 68.3 degF;
    cooling_setpoint 74.1 degF;
    air_temperature 72.3 degF;
    mass_temperature 72.3 degF;
    heating_system_type RESISTANCE;
    cooling_system_type ELECTRIC;
    weather climate1;
}

object triplex_meter { name meter_52; phases AS; nominal_voltage 120; }
object house {
    name house_52;
    parent meter_52;
    floor_area 2999.8 sf;
    ceiling_height 9.4 ft;
    Rroof 39.5;
    Rwall 25.6;
    Rfloor 19.8;
    Rwindows 5.02;
    air_change_per_hour 1.44;
    heating_setpoint 68.8 degF;
    cooling_setpoint 74.1 degF;
    air_temperature 69.2 degF;
    mass_temperature 69.2 degF;
    heating_system_type RESISTANCE;
    cooling_system_type ELECTRIC;
    weather climate1;
}

object triplex_meter { name meter_53; phases AS; nominal_voltage 120; }
object house {
    name house_53;
    parent meter_53;
    floor_area 1077.7 sf;
    ceiling_height 10.7 ft;
    Rroof 36.9;
    Rwall 14.4;
    Rfloor 20.5;
    Rwindows 5.07;
    air_change_per_hour 0.50;
    heating_setpoint 70.4 degF;
    cooling_setpoint 77.0 degF;
    air_temperature 68.9 degF;
    mass_temperature 68.9 degF;
    heating_system_type RESISTANCE;
    cooling_system_type ELECTRIC;
    weather climate1;
}

object triplex_meter { name meter_54; phases AS; nominal_voltage 120; }
object house {
    name house_54;
    parent meter_54;
    floor_area 2602.5 sf;
    ceiling_height 11.9 ft;
    Rroof 23.2;
    Rwall 10.5;
    Rfloor 14.7;
    Rwindows 4.71;
    air_change_per_hour 1.45;
    heating_setpoint 69.6 degF;
    cooling_setpoint 76.9 degF;
    air_temperature 68.6 degF;
    mass_temperature 68.6 degF;
    heating_system_type RESISTANCE;
    cooling_system_type ELECTRIC;
    weather climate1;
}

object triplex_meter { name meter_55; phases AS; nominal_voltage 120; }
object house {
    name house_55;
    parent meter_55;
    floor_area 2319.4 sf;
    ceiling_height 10.5 ft;
    Rroof 23.1;
    Rwall 25.4;
    Rfloor 22.8;
    Rwindows 4.40;
    air_change_per_hour 0.45;
    heating_setpoint 71.9 degF;
    cooling_setpoint 77.1 degF;
    air_temperature 70.8 degF;
    mass_temperature 70.8 degF;
    heating_system_type RESISTANCE;
    cooling_system_type ELECTRIC;
    weather climate1;
}

object triplex_meter { name meter_56; phases AS; nominal_voltage 120; }
object house {
    name house_56;
    parent meter_56;
    floor_area 1742.4 sf;
    ceiling_height 9.5 ft;
    Rroof 35.2;
    Rwall 16.8;
    Rfloor 22.7;
    Rwindows 5.29;
    air_change_per_hour 0.43;
    heating_setpoint 71.8 degF;
    cooling_setpoint 76.5 degF;
    air_temperature 74.6 degF;
    mass_temperature 74.6 degF;
    heating_system_type RESISTANCE;
    cooling_system_type ELECTRIC;
    weather climate1;
}

object triplex_meter { name meter_57; phases AS; nominal_voltage 120; }
object house {
    name house_57;
    parent meter_57;
    floor_area 2356.1 sf;
    ceiling_height 9.7 ft;
    Rroof 42.0;
    Rwall 29.3;
    Rfloor 14.1;
    Rwindows 5.23;
    air_change_per_hour 0.95;
    heating_setpoint 69.9 degF;
    cooling_setpoint 75.7 degF;
    air_temperature 73.8 degF;
    mass_temperature 73.8 degF;
    heating_system_type RESISTANCE;
    cooling_system_type ELECTRIC;
    weather climate1;
}

object triplex_meter { name meter_58; phases AS; nominal_voltage 120; }
object house {
    name house_58;
    parent meter_58;
    floor_area 1390.5 sf;
    ceiling_height 11.4 ft;
    Rroof 44.9;
    Rwall 11.7;
    Rfloor 23.2;
    Rwindows 2.98;
    air_change_per_hour 0.86;
    heating_setpoint 70.4 degF;
    cooling_setpoint 75.5 degF;
    air_temperature 68.2 degF;
    mass_temperature 68.2 degF;
    heating_system_type RESISTANCE;
    cooling_system_type ELECTRIC;
    weather climate1;
}

object triplex_meter { name meter_59; phases AS; nominal_voltage 120; }
object house {
    name house_59;
    parent meter_59;
    floor_area 2672.1 sf;
    ceiling_height 8.7 ft;
    Rroof 26.4;
    Rwall 26.0;
    Rfloor 15.1;
    Rwindows 5.52;
    air_change_per_hour 1.14;
    heating_setpoint 69.1 degF;
    cooling_setpoint 74.0 degF;
    air_temperature 75.6 degF;
    mass_temperature 75.6 degF;
    heating_system_type RESISTANCE;
    cooling_system_type ELECTRIC;
    weather climate1;
}

object triplex_meter { name meter_60; phases AS; nominal_voltage 120; }
object house {
    name house_60;
    parent meter_60;
    floor_area 988.3 sf;
    ceiling_height 10.9 ft;
    Rroof 34.7;
    Rwall 25.2;
    Rfloor 20.4;
    Rwindows 4.58;
    air_change_per_hour 0.89;
    heating_setpoint 71.2 degF;
    cooling_setpoint 74.4 degF;
    air_temperature 69.8 degF;
    mass_temperature 69.8 degF;
    heating_system_type RESISTANCE;
    cooling_system_type ELECTRIC;
    weather climate1;
}

object triplex_meter { name meter_61; phases AS; nominal_voltage 120; }
object house {
    name house_61;
    parent meter_61;
    floor_area 2321.9 sf;
    ceiling_height 9.2 ft;
    Rroof 37.4;
    Rwall 19.5;
    Rfloor 18.0;
    Rwindows 3.70;
    air_change_per_hour 1.20;
    heating_setpoint 69.3 degF;
    cooling_setpoint 76.8 degF;
    air_temperature 70.2 degF;
    mass_temperature 70.2 degF;
    heating_system_type RESISTANCE;
    cooling_system_type ELECTRIC;
    weather climate1;
}

object triplex_meter { name meter_62; phases AS; nominal_voltage 120; }
object house {
    name house_62;
    parent meter_62;
    floor_area 1353.1 sf;
    ceiling_height 8.5 ft;
    Rroof 25.8;
    Rwall 12.4;
    Rfloor 18.0;
    Rwindows 5.05;
    air_change_per_hour 0.52;
    heating_setpoint 68.9 degF;
    cooling_setpoint 75.9 degF;
    air_temperature 73.8 degF;
    mass_temperature 73.8 degF;
    heating_system_type RESISTANCE;
    cooling_system_type ELECTRIC;
    weather climate1;
}

object triplex_meter { name meter_63; phases AS; nominal_voltage 120; }
object house {
    name house_63;
    parent meter_63;
    floor_area 2948.5 sf;
    ceiling_height 10.1 ft;
    Rroof 28.5;
    Rwall 12.0;
    Rfloor 12.9;
    Rwindows 2.91;
    air_change_per_hour 0.52;
    heating_setpoint 68.1 degF;
    cooling_setpoint 76.1 degF;
    air_temperature 70.2 degF;
    mass_temperature 70.2 degF;
    heating_system_type RESISTANCE;
    cooling_system_type ELECTRIC;
    weather climate1;
}

object triplex_meter { name meter_64; phases AS; nominal_voltage 120; }
object house {
    name house_64;
    parent meter_64;
    floor_area 2943.4 sf;
    ceiling_height 10.2 ft;
    Rroof 40.9;
    Rwall 12.5;
    Rfloor 23.0;
    Rwindows 3.96;
    air_change_per_hour 1.35;
    heating_setpoint 70.3 degF;
    cooling_setpoint 75.9 degF;
    air_temperature 71.5 degF;
    mass_temperature 71.5 degF;
    heating_system_type RESISTANCE;
    cooling_system_type ELECTRIC;
    weather climate1;
}

object triplex_meter { name meter_65; phases AS; nominal_voltage 120; }
object house {
    name house_65;
    parent meter_65;
    floor_area 1205.6 sf;
    ceiling_height 8.2 ft;
    Rroof 48.2;
    Rwall 19.6;
    Rfloor 22.3;
    Rwindows 3.60;
    air_change_per_hour 0.39;
    heating_setpoint 70.5 degF;
    cooling_setpoint 74.2 degF;
    air_temperature 69.2 degF;
    mass_temperature 69.2 degF;
    heating_system_type RESISTANCE;
    cooling_system_type ELECTRIC;
    weather climate1;
}

object triplex_meter { name meter_66; phases AS; nominal_voltage 120; }
object house {
    name house_66;
    parent meter_66;
    floor_area 2038.2 sf;
    ceiling_height 9.2 ft;
    Rroof 49.8;
    Rwall 12.4;
    Rfloor 21.5;
    Rwindows 4.43;
    air_change_per_hour 1.25;
    heating_setpoint 68.9 degF;
    cooling_setpoint 76.1 degF;
    air_temperature 71.6 degF;
    mass_temperature 71.6 degF;
    heating_system_type RESISTANCE;
    cooling_system_type ELECTRIC;
    weather climate1;
}

object triplex_meter { name meter_67; phases AS; nominal_voltage 120; }
object house {
    name house_67;
    parent meter_67;
    floor_area 1774.0 sf;
    ceiling_height 11.4 ft;
    Rroof 49.7;
    Rwall 16.1;
    Rfloor 19.3;
    Rwindows 4.44;
    air_change_per_hour 1.19;
    heating_setpoint 71.8 degF;
    cooling_setpoint 74.8 degF;
    air_temperature 69.7 degF;
    mass_temperature 69.7 degF;
    heating_system_type RESISTANCE;
    cooling_system_type ELECTRIC;
    weather climate1;
}

object triplex_meter { name meter_68; phases AS; nominal_voltage 120; }
object house {
    name house_68;
    parent meter_68;
    floor_area 2252.9 sf;
    ceiling_height 8.6 ft;
    Rroof 25.2;
    Rwall 11.5;
    Rfloor 10.0;
    Rwindows 3.80;
    air_change_per_hour 1.01;
    heating_setpoint 69.2 degF;
    cooling_setpoint 74.9 degF;
    air_temperature 73.7 degF;
    mass_temperature 73.7 degF;
    heating_system_type RESISTANCE;
    cooling_system_type ELECTRIC;
    weather climate1;
}

object triplex_meter { name meter_69; phases AS; nominal_voltage 120; }
object house {
    name house_69;
    parent meter_69;
    floor_area 2346.6 sf;
    ceiling_height 9.8 ft;
    Rroof 40.6;
    Rwall 28.5;
    Rfloor 21.8;
    Rwindows 4.50;
    air_change_per_hour 1.09;
    heating_setpoint 71.7 degF;
    cooling_setpoint 75.7 degF;
    air_temperature 72.4 degF;
    mass_temperature 72.4 degF;
    heating_system_type RESISTANCE;
    cooling_system_type ELECTRIC;
    weather climate1;
}

object triplex_meter { name meter_70; phases AS; nominal_voltage 120; }
object house {
    name house_70;
    parent meter_70;
    floor_area 2224.8 sf;
    ceiling_height 11.6 ft;
    Rroof 44.8;
    Rwall 11.4;
    Rfloor 12.5;
    Rwindows 3.23;
    air_change_per_hour 1.20;
    heating_setpoint 70.3 degF;
    cooling_setpoint 75.2 degF;
    air_temperature 69.0 degF;
    mass_temperature 69.0 degF;
    heating_system_type RESISTANCE;
    cooling_system_type ELECTRIC;
    weather climate1;
}

object triplex_meter { name meter_71; phases AS; nominal_voltage 120; }
object house {
    name house_71;
    parent meter_71;
    floor_area 2315.1 sf;
    ceiling_height 10.8 ft;
    Rroof 48.3;
    Rwall 20.0;
    Rfloor 17.4;
    Rwindows 2.32;
    air_change_per_hour 0.35;
    heating_setpoint 69.7 degF;
    cooling_setpoint 75.3 degF;
    air_temperature 70.0 degF;
    mass_temperature 70.0 degF;
    heating_system_type RESISTANCE;
    cooling_system_type ELECTRIC;
    weather climate1;
}

object triplex_meter { name meter_72; phases AS; nominal_voltage 120; }
object house {
    name house_72;
    parent meter_72;
    floor_area 1000.9 sf;
    ceiling_height 11.8 ft;
    Rroof 45.1;
    Rwall 21.5;
    Rfloor 24.3;
    Rwindows 6.00;
    air_change_per_hour 1.11;
    heating_setpoint 69.1 degF;
    cooling_setpoint 74.2 degF;
    air_temperature 74.1 degF;
    mass_temperature 74.1 degF;
    heating_system_type RESISTANCE;
    cooling_system_type ELECTRIC;
    weather climate1;
}

object triplex_meter { name meter_73; phases AS; nominal_voltage 120; }
object house {
    name house_73;
    parent meter_73;
    floor_area 1835.1 sf;
    ceiling_height 10.6 ft;
    Rroof 47.5;
    Rwall 13.6;
    Rfloor 18.8;
    Rwindows 4.54;
    air_change_per_hour 0.89;
    heating_setpoint 68.4 degF;
    cooling_setpoint 75.4 degF;
    air_temperature 70.7 degF;
    mass_temperature 70.7 degF;
    heating_system_type RESISTANCE;
    cooling_system_type ELECTRIC;
    weather climate1;
}

object triplex_meter { name meter_74; phases AS; nominal_voltage 120; }
object house {
    name house_74;
    parent meter_74;
    floor_area 2274.3 sf;
    ceiling_height 11.4 ft;
    Rroof 29.9;
    Rwall 23.9;
    Rfloor 14.3;
    Rwindows 5.78;
    air_change_per_hour 1.28;
    heating_setpoint 70.2 degF;
    cooling_setpoint 75.8 degF;
    air_temperature 70.5 degF;
    mass_temperature 70.5 degF;
    heating_system_type RESISTANCE;
    cooling_system_type ELECTRIC;
    weather climate1;
}

object triplex_meter { name meter_75; phases AS; nominal_voltage 120; }
object house {
    name house_75;
    parent meter_75;
    floor_area 1511.2 sf;
    ceiling_height 11.9 ft;
    Rroof 32.1;
    Rwall 20.3;
    Rfloor 24.8;
    Rwindows 4.63;
    air_change_per_hour 0.95;
    heating_setpoint 69.7 degF;
    cooling_setpoint 74.8 degF;
    air_temperature 70.9 degF;
    mass_temperature 70.9 degF;
    heating_system_type RESISTANCE;
    cooling_system_type ELECTRIC;
    weather climate1;
}

object triplex_meter { name meter_76; phases AS; nominal_voltage 120; }
object house {
    name house_76;
    parent meter_76;
    floor_area 2464.2 sf;
    ceiling_height 10.5 ft;
    Rroof 42.8;
    Rwall 14.1;
    Rfloor 18.2;
    Rwindows 5.71;
    air_change_per_hour 0.83;
    heating_setpoint 70.8 degF;
    cooling_setpoint 74.5 degF;
    air_temperature 75.8 degF;
    mass_temperature 75.8 degF;
    heating_system_type RESISTANCE;
    cooling_system_type ELECTRIC;
    weather climate1;
}

object triplex_meter { name meter_77; phases AS; nominal_voltage 120; }
object house {
    name house_77;
    parent meter_77;
    floor_area 2139.5 sf;
    ceiling_height 9.0 ft;
    Rroof 24.8;
    Rwall 21.0;
    Rfloor 18.3;
    Rwindows 2.37;
    air_change_per_hour 1.49;
    heating_setpoint 71.7 degF;
    cooling_setpoint 75.8 degF;
    air_temperature 68.9 degF;
    mass_temperature 68.9 degF;
    heating_system_type RESISTANCE;
    cooling_system_type ELECTRIC;
    weather climate1;
}

object triplex_meter { name meter_78; phases AS; nominal_voltage 120; }
object house {
    name house_78;
    parent meter_78;
    floor_area 2630.7 sf;
    ceiling_height 10.0 ft;
    Rroof 41.5;
    Rwall 20.2;
    Rfloor 14.1;
    Rwindows 5.34;
    air_change_per_hour 1.48;
    heating_setpoint 69.0 degF;
    cooling_setpoint 76.2 degF;
    air_temperature 71.1 degF;
    mass_temperature 71.1 degF;
    heating_system_type RESISTANCE;
    cooling_system_type ELECTRIC;
    weather climate1;
}

object triplex_meter { name meter_79; phases AS; nominal_voltage 120; }
object house {
    name house_79;
    parent meter_79;
    floor_area 2828.1 sf;
    ceiling_height 10.0 ft;
    Rroof 46.4;
    Rwall 27.3;
    Rfloor 14.1;
    Rwindows 5.16;
    air_change_per_hour 0.80;
    heating_setpoint 71.7 degF;
    cooling_setpoint 76.0 degF;
    air_temperature 74.6 degF;
    mass_temperature 74.6 degF;
    heating_system_type RESISTANCE;
    cooling_system_type ELECTRIC;
    weather climate1;
}

object triplex_meter { name meter_80; phases AS; nominal_voltage 120; }
object house {
    name house_80;
    parent meter_80;
    floor_area 1422.2 sf;
    ceiling_height 9.2 ft;
    Rroof 37.6;
    Rwall 30.0;
    Rfloor 17.3;
    Rwindows 2.59;
    air_change_per_hour 0.95;
    heating_setpoint 69.4 degF;
    cooling_setpoint 76.2 degF;
    air_temperature 72.3 degF;
    mass_temperature 72.3 degF;
    heating_system_type RESISTANCE;
    cooling_system_type ELECTRIC;
    weather climate1;
}

object triplex_meter { name meter_81; phases AS; nominal_voltage 120; }
object house {
    name house_81;
    parent meter_81;
    floor_area 1801.8 sf;
    ceiling_height 9.3 ft;
    Rroof 25.7;
    Rwall 23.9;
    Rfloor 18.6;
    Rwindows 2.93;
    air_change_per_hour 1.23;
    heating_setpoint 68.2 degF;
    cooling_setpoint 77.0 degF;
    air_temperature 73.6 degF;
    mass_temperature 73.6 degF;
    heating_system_type RESISTANCE;
    cooling_system_type ELECTRIC;
    weather climate1;
}

object triplex_meter { name meter_82; phases AS; nominal_voltage 120; }
object house {
    name house_82;
    parent meter_82;
    floor_area 2585.1 sf;
    ceiling_height 9.5 ft;
    Rroof 39.9;
    Rwall 26.4;
    Rfloor 24.7;
    Rwindows 3.98;
    air_change_per_hour 0.34;
    heating_setpoint 70.0 degF;
    cooling_setpoint 76.4 degF;
    air_temperature 75.0 degF;
    mass_temperature 75.0 degF;
    heating_system_type RESISTANCE;
    cooling_system_type ELECTRIC;
    weather climate1;
}

object triplex_meter { name meter_83; phases AS; nominal_voltage 120; }
object house {
    name house_83;
    parent meter_83;
    floor_area 2723.2 sf;
    ceiling_height 9.8 ft;
    Rroof 35.8;
    Rwall 19.1;
    Rfloor 20.8;
    Rwindows 3.64;
    air_change_per_hour 1.09;
    heating_setpoint 68.6 degF;
    cooling_setpoint 75.9 degF;
    air_temperature 75.8 degF;
    mass_temperature 75.8 degF;
    heating_system_type RESISTANCE;
    cooling_system_type ELECTRIC;
    weather climate1;
}

object triplex_meter { name meter_84; phases AS; nominal_voltage 120; }
object house {
    name house_84;
    parent meter_84;
    floor_area 1544.8 sf;
    ceiling_height 10.8 ft;
    Rroof 39.5;
    Rwall 27.0;
    Rfloor 22.8;
    Rwindows 5.44;
    air_change_per_hour 0.76;
    heating_setpoint 69.3 degF;
    cooling_setpoint 76.9 degF;
    air_temperature 74.1 degF;
    mass_temperature 74.1 degF;
    heating_system_type RESISTANCE;
    cooling_system_type ELECTRIC;
    weather climate1;
}

object triplex_meter { name meter_85; phases AS; nominal_voltage 120; }
object house {
    name house_85;
    parent meter_85;
    floor_area 2719.2 sf;
    ceiling_height 8.1 ft;
    Rroof 22.1;
    Rwall 22.6;
    Rfloor 23.8;
    Rwindows 5.99;
    air_change_per_hour 1.20;
    heating_setpoint 69.7 degF;
    cooling_setpoint 74.4 degF;
    air_temperature 73.1 degF;
    mass_temperature 73.1 degF;
    heating_system_type RESISTANCE;
    cooling_system_type ELECTRIC;
    weather climate1;
}

object triplex_meter { name meter_86; phases AS; nominal_voltage 120; }
object house {
    name house_86;
    parent meter_86;
    floor_area 2719.7 sf;
    ceiling_height 9.8 ft;
    Rroof 40.8;
    Rwall 28.1;
    Rfloor 10.7;
    Rwindows 5.18;
    air_change_per_hour 0.65;
    heating_setpoint 69.5 degF;
    cooling_setpoint 74.6 degF;
    air_temperature 72.2 degF;
    mass_temperature 72.2 degF;
    heating_system_type RESISTANCE;
    cooling_system_type ELECTRIC;
    weather climate1;
}

object triplex_meter { name meter_87; phases AS; nominal_voltage 120; }
object house {
    name house_87;
    parent meter_87;
    floor_area 2045.0 sf;
    ceiling_height 11.2 ft;
    Rroof 25.1;
    Rwall 11.6;
    Rfloor 23.1;
    Rwindows 4.48;
    air_change_per_hour 0.59;
    heating_setpoint 71.7 degF;
    cooling_setpoint 74.6 degF;
    air_temperature 71.7 degF;
    mass_temperature 71.7 degF;
    heating_system_type RESISTANCE;
    cooling_system_type ELECTRIC;
    weather climate1;
}

object triplex_meter { name meter_88; phases AS; nominal_voltage 120; }
object house {
    name house_88;
    parent meter_88;
    floor_area 1358.8 sf;
    ceiling_height 9.0 ft;
    Rroof 20.3;
    Rwall 26.1;
    Rfloor 23.5;
    Rwindows 4.71;
    air_change_per_hour 0.49;
    heating_setpoint 69.8 degF;
    cooling_setpoint 75.4 degF;
    air_temperature 72.7 degF;
    mass_temperature 72.7 degF;
    heating_system_type RESISTANCE;
    cooling_system_type ELECTRIC;
    weather climate1;
}

object triplex_meter { name meter_89; phases AS; nominal_voltage 120; }
object house {
    name house_89;
    parent meter_89;
    floor_area 2205.7 sf;
    ceiling_height 9.7 ft;
    Rroof 27.5;
    Rwall 26.9;
    Rfloor 13.0;
    Rwindows 3.54;
    air_change_per_hour 0.88;
    heating_setpoint 68.9 degF;
    cooling_setpoint 76.3 degF;
    air_temperature 72.6 degF;
    mass_temperature 72.6 degF;
    heating_system_type RESISTANCE;
    cooling_system_type ELECTRIC;
    weather climate1;
}

object triplex_meter { name meter_90; phases AS; nominal_voltage 120; }
object house {
    name house_90;
    parent meter_90;
    floor_area 2983.9 sf;
    ceiling_height 9.2 ft;
    Rroof 49.3;
    Rwall 23.2;
    Rfloor 14.1;
    Rwindows 4.26;
    air_change_per_hour 1.12;
    heating_setpoint 71.0 degF;
    cooling_setpoint 74.2 degF;
    air_temperature 72.9 degF;
    mass_temperature 72.9 degF;
    heating_system_type RESISTANCE;
    cooling_system_type ELECTRIC;
    weather climate1;
}

object triplex_meter { name meter_91; phases AS; nominal_voltage 120; }
object house {
    name house_91;
    parent meter_91;
    floor_area 1892.8 sf;
    ceiling_height 11.6 ft;
    Rroof 28.6;
    Rwall 26.0;
    Rfloor 19.1;
    Rwindows 3.41;
    air_change_per_hour 1.06;
    heating_setpoint 70.5 degF;
    cooling_setpoint 76.7 degF;
    air_temperature 73.8 degF;
    mass_temperature 73.8 degF;
    heating_system_type RESISTANCE;
    cooling_system_type ELECTRIC;
    weather climate1;
}

object triplex_meter { name meter_92; phases AS; nominal_voltage 120; }
object house {
    name house_92;
    parent meter_92;
    floor_area 2250.2 sf;
    ceiling_height 11.4 ft;
    Rroof 38.8;
    Rwall 28.1;
    Rfloor 19.7;
    Rwindows 3.24;
    air_change_per_hour 0.83;
    heating_setpoint 70.3 degF;
    cooling_setpoint 76.9 degF;
    air_temperature 68.7 degF;
    mass_temperature 68.7 degF;
    heating_system_type RESISTANCE;
    cooling_system_type ELECTRIC;
    weather climate1;
}

object triplex_meter { name meter_93; phases AS; nominal_voltage 120; }
object house {
    name house_93;
    parent meter_93;
    floor_area 1449.2 sf;
    ceiling_height 11.0 ft;
    Rroof 25.3;
    Rwall 12.6;
    Rfloor 18.1;
    Rwindows 5.89;
    air_change_per_hour 0.94;
    heating_setpoint 71.7 degF;
    cooling_setpoint 77.3 degF;
    air_temperature 70.1 degF;
    mass_temperature 70.1 degF;
    heating_system_type RESISTANCE;
    cooling_system_type ELECTRIC;
    weather climate1;
}

object triplex_meter { name meter_94; phases AS; nominal_voltage 120; }
object house {
    name house_94;
    parent meter_94;
    floor_area 2614.3 sf;
    ceiling_height 9.9 ft;
    Rroof 44.2;
    Rwall 24.9;
    Rfloor 15.1;
    Rwindows 2.46;
    air_change_per_hour 1.46;
    heating_setpoint 68.6 degF;
    cooling_setpoint 77.9 degF;
    air_temperature 74.9 degF;
    mass_temperature 74.9 degF;
    heating_system_type RESISTANCE;
    cooling_system_type ELECTRIC;
    weather climate1;
}

object triplex_meter { name meter_95; phases AS; nominal_voltage 120; }
object house {
    name house_95;
    parent meter_95;
    floor_area 2393.3 sf;
    ceiling_height 11.9 ft;
    Rroof 49.0;
    Rwall 26.1;
    Rfloor 15.5;
    Rwindows 5.16;
    air_change_per_hour 0.32;
    heating_setpoint 70.1 degF;
    cooling_setpoint 75.8 degF;
    air_temperature 73.4 degF;
    mass_temperature 73.4 degF;
    heating_system_type RESISTANCE;
    cooling_system_type ELECTRIC;
    weather climate1;
}

object triplex_meter { name meter_96; phases AS; nominal_voltage 120; }
object house {
    name house_96;
    parent meter_96;
    floor_area 2279.1 sf;
    ceiling_height 10.3 ft;
    Rroof 44.7;
    Rwall 28.8;
    Rfloor 11.6;
    Rwindows 2.94;
    air_change_per_hour 0.33;
    heating_setpoint 71.5 degF;
    cooling_setpoint 76.2 degF;
    air_temperature 75.3 degF;
    mass_temperature 75.3 degF;
    heating_system_type RESISTANCE;
    cooling_system_type ELECTRIC;
    weather climate1;
}

object triplex_meter { name meter_97; phases AS; nominal_voltage 120; }
object house {
    name house_97;
    parent meter_97;
    floor_area 1287.0 sf;
    ceiling_height 8.3 ft;
    Rroof 44.7;
    Rwall 28.2;
    Rfloor 14.5;
    Rwindows 3.63;
    air_change_per_hour 0.47;
    heating_setpoint 71.8 degF;
    cooling_setpoint 75.2 degF;
    air_temperature 71.9 degF;
    mass_temperature 71.9 degF;
    heating_system_type RESISTANCE;
    cooling_system_type ELECTRIC;
    weather climate1;
}

object triplex_meter { name meter_98; phases AS; nominal_voltage 120; }
object house {
    name house_98;
    parent meter_98;
    floor_area 1013.8 sf;
    ceiling_height 11.5 ft;
    Rroof 24.1;
    Rwall 19.1;
    Rfloor 20.1;
    Rwindows 4.97;
    air_change_per_hour 1.44;
    heating_setpoint 69.7 degF;
    cooling_setpoint 77.0 degF;
    air_temperature 69.2 degF;
    mass_temperature 69.2 degF;
    heating_system_type RESISTANCE;
    cooling_system_type ELECTRIC;
    weather climate1;
}

object triplex_meter { name meter_99; phases AS; nominal_voltage 120; }
object house {
    name house_99;
    parent meter_99;
    floor_area 1712.7 sf;
    ceiling_height 8.4 ft;
    Rroof 34.7;
    Rwall 18.2;
    Rfloor 24.3;
    Rwindows 2.13;
    air_change_per_hour 0.74;
    heating_setpoint 69.8 degF;
    cooling_setpoint 77.8 degF;
    air_temperature 74.8 degF;
    mass_temperature 74.8 degF;
    heating_system_type RESISTANCE;
    cooling_system_type ELECTRIC;
    weather climate1;
}

object triplex_meter { name meter_100; phases AS; nominal_voltage 120; }
object house {
    name house_100;
    parent meter_100;
    floor_area 1018.6 sf;
    ceiling_height 10.7 ft;
    Rroof 36.3;
    Rwall 29.6;
    Rfloor 15.4;
    Rwindows 3.59;
    air_change_per_hour 0.53;
    heating_setpoint 68.5 degF;
    cooling_setpoint 77.4 degF;
    air_temperature 71.6 degF;
    mass_temperature 71.6 degF;
    heating_system_type RESISTANCE;
    cooling_system_type ELECTRIC;
    weather climate1;
}

object triplex_meter { name meter_101; phases AS; nominal_voltage 120; }
object house {
    name house_101;
    parent meter_101;
    floor_area 2258.1 sf;
    ceiling_height 10.6 ft;
    Rroof 37.9;
    Rwall 10.4;
    Rfloor 21.8;
    Rwindows 2.97;
    air_change_per_hour 0.45;
    heating_setpoint 70.3 degF;
    cooling_setpoint 74.3 degF;
    air_temperature 74.1 degF;
    mass_temperature 74.1 degF;
    heating_system_type RESISTANCE;
    cooling_system_type ELECTRIC;
    weather climate1;
}

object triplex_meter { name meter_102; phases AS; nominal_voltage 120; }
object house {
    name house_102;
    parent meter_102;
    floor_area 1255.7 sf;
    ceiling_height 8.9 ft;
    Rroof 46.1;
    Rwall 16.6;
    Rfloor 12.2;
    Rwindows 5.60;
    air_change_per_hour 0.30;
    heating_setpoint 71.4 degF;
    cooling_setpoint 74.6 degF;
    air_temperature 69.0 degF;
    mass_temperature 69.0 degF;
    heating_system_type RESISTANCE;
    cooling_system_type ELECTRIC;
    weather climate1;
}

object triplex_meter { name meter_103; phases AS; nominal_voltage 120; }
object house {
    name house_103;
    parent meter_103;
    floor_area 1351.4 sf;
    ceiling_height 8.7 ft;
    Rroof 39.8;
    Rwall 10.5;
    Rfloor 10.2;
    Rwindows 5.16;
    air_change_per_hour 0.59;
    heating_setpoint 69.3 degF;
    cooling_setpoint 74.7 degF;
    air_temperature 68.4 degF;
    mass_temperature 68.4 degF;
    heating_system_type RESISTANCE;
    cooling_system_type ELECTRIC;
    weather climate1;
}

object triplex_meter { name meter_104; phases AS; nominal_voltage 120; }
object house {
    name house_104;
    parent meter_104;
    floor_area 2431.8 sf;
    ceiling_height 10.1 ft;
    Rroof 42.4;
    Rwall 19.5;
    Rfloor 21.7;
    Rwindows 4.05;
    air_change_per_hour 0.43;
    heating_setpoint 70.0 degF;
    cooling_setpoint 77.8 degF;
    air_temperature 68.3 degF;
    mass_temperature 68.3 degF;
    heating_system_type RESISTANCE;
    cooling_system_type ELECTRIC;
    weather climate1;
}

object triplex_meter { name meter_105; phases AS; nominal_voltage 120; }
object house {
    name house_105;
    parent meter_105;
    floor_area 2523.1 sf;
    ceiling_height 11.5 ft;
    Rroof 35.6;
    Rwall 19.2;
    Rfloor 24.5;
    Rwindows 2.24;
    air_change_per_hour 0.87;
    heating_setpoint 69.6 degF;
    cooling_setpoint 76.7 degF;
    air_temperature 71.9 degF;
    mass_temperature 71.9 degF;
    heating_system_type RESISTANCE;
    cooling_system_type ELECTRIC;
    weather climate1;
}

object triplex_meter { name meter_106; phases AS; nominal_voltage 120; }
object house {
    name house_106;
    parent meter_106;
    floor_area 2801.3 sf;
    ceiling_height 8.3 ft;
    Rroof 22.4;
    Rwall 22.2;
    Rfloor 11.0;
    Rwindows 3.10;
    air_change_per_hour 1.06;
    heating_setpoint 70.2 degF;
    cooling_setpoint 75.3 degF;
    air_temperature 76.0 degF;
    mass_temperature 76.0 degF;
    heating_system_type RESISTANCE;
    cooling_system_type ELECTRIC;
    weather climate1;
}

object triplex_meter { name meter_107; phases AS; nominal_voltage 120; }
object house {
    name house_107;
    parent meter_107;
    floor_area 1967.2 sf;
    ceiling_height 9.8 ft;
    Rroof 38.2;
    Rwall 12.0;
    Rfloor 20.5;
    Rwindows 5.41;
    air_change_per_hour 1.08;
    heating_setpoint 71.1 degF;
    cooling_setpoint 76.9 degF;
    air_temperature 69.7 degF;
    mass_temperature 69.7 degF;
    heating_system_type RESISTANCE;
    cooling_system_type ELECTRIC;
    weather climate1;
}

object triplex_meter { name meter_108; phases AS; nominal_voltage 120; }
object house {
    name house_108;
    parent meter_108;
    floor_area 1793.4 sf;
    ceiling_height 8.9 ft;
    Rroof 30.2;
    Rwall 19.1;
    Rfloor 16.2;
    Rwindows 2.38;
    air_change_per_hour 0.81;
    heating_setpoint 70.7 degF;
    cooling_setpoint 75.5 degF;
    air_temperature 69.2 degF;
    mass_temperature 69.2 degF;
    heating_system_type RESISTANCE;
    cooling_system_type ELECTRIC;
    weather climate1;
}

object triplex_meter { name meter_109; phases AS; nominal_voltage 120; }
object house {
    name house_109;
    parent meter_109;
    floor_area 2830.6 sf;
    ceiling_height 8.3 ft;
    Rroof 45.0;
    Rwall 11.9;
    Rfloor 11.4;
    Rwindows 4.96;
    air_change_per_hour 1.27;
    heating_setpoint 70.2 degF;
    cooling_setpoint 76.3 degF;
    air_temperature 72.5 degF;
    mass_temperature 72.5 degF;
    heating_system_type RESISTANCE;
    cooling_system_type ELECTRIC;
    weather climate1;
}

object triplex_meter { name meter_110; phases AS; nominal_voltage 120; }
object house {
    name house_110;
    parent meter_110;
    floor_area 1525.2 sf;
    ceiling_height 8.5 ft;
    Rroof 30.6;
    Rwall 23.3;
    Rfloor 21.3;
    Rwindows 5.47;
    air_change_per_hour 1.17;
    heating_setpoint 71.9 degF;
    cooling_setpoint 76.4 degF;
    air_temperature 70.8 degF;
    mass_temperature 70.8 degF;
    heating_system_type RESISTANCE;
    cooling_system_type ELECTRIC;
    weather climate1;
}

object triplex_meter { name meter_111; phases AS; nominal_voltage 120; }
object house {
    name house_111;
    parent meter_111;
    floor_area 2071.4 sf;
    ceiling_height 8.9 ft;
    Rroof 39.7;
    Rwall 14.5;
    Rfloor 11.6;
    Rwindows 5.38;
    air_change_per_hour 0.74;
    heating_setpoint 71.1 degF;
    cooling_setpoint 76.3 degF;
    air_temperature 74.5 degF;
    mass_temperature 74.5 degF;
    heating_system_type RESISTANCE;
    cooling_system_type ELECTRIC;
    weather climate1;
}

object triplex_meter { name meter_112; phases AS; nominal_voltage 120; }
object house {
    name house_112;
    parent meter_112;
    floor_area 2659.3 sf;
    ceiling_height 11.9 ft;
    Rroof 44.6;
    Rwall 22.3;
    Rfloor 19.6;
    Rwindows 2.11;
    air_change_per_hour 1.41;
    heating_setpoint 71.3 degF;
    cooling_setpoint 75.1 degF;
    air_temperature 69.4 degF;
    mass_temperature 69.4 degF;
    heating_system_type RESISTANCE;
    cooling_system_type ELECTRIC;
    weather climate1;
}

object triplex_meter { name meter_113; phases AS; nominal_voltage 120; }
object house {
    name house_113;
    parent meter_113;
    floor_area 2345.9 sf;
    ceiling_height 9.2 ft;
    Rroof 30.2;
    Rwall 10.1;
    Rfloor 23.0;
    Rwindows 4.27;
    air_change_per_hour 0.78;
    heating_setpoint 68.6 degF;
    cooling_setpoint 76.5 degF;
    air_temperature 68.2 degF;
    mass_temperature 68.2 degF;
    heating_system_type RESISTANCE;
    cooling_system_type ELECTRIC;
    weather climate1;
}

object triplex_meter { name meter_114; phases AS; nominal_voltage 120; }
object house {
    name house_114;
    parent meter_114;
    floor_area 2441.4 sf;
    ceiling_height 8.9 ft;
    Rroof 32.6;
    Rwall 16.8;
    Rfloor 15.6;
    Rwindows 4.89;
    air_change_per_hour 1.23;
    heating_setpoint 70.3 degF;
    cooling_setpoint 74.3 degF;
    air_temperature 68.4 degF;
    mass_temperature 68.4 degF;
    heating_system_type RESISTANCE;
    cooling_system_type ELECTRIC;
    weather climate1;
}

object triplex_meter { name meter_115; phases AS; nominal_voltage 120; }
object house {
    name house_115;
    parent meter_115;
    floor_area 1146.3 sf;
    ceiling_height 10.5 ft;
    Rroof 40.2;
    Rwall 15.4;
    Rfloor 19.9;
    Rwindows 3.94;
    air_change_per_hour 0.83;
    heating_setpoint 69.1 degF;
    cooling_setpoint 77.0 degF;
    air_temperature 68.9 degF;
    mass_temperature 68.9 degF;
    heating_system_type RESISTANCE;
    cooling_system_type ELECTRIC;
    weather climate1;
}

object triplex_meter { name meter_116; phases AS; nominal_voltage 120; }
object house {
    name house_116;
    parent meter_116;
    floor_area 1745.8 sf;
    ceiling_height 9.1 ft;
    Rroof 40.4;
    Rwall 19.7;
    Rfloor 20.0;
    Rwindows 2.18;
    air_change_per_hour 0.77;
    heating_setpoint 70.4 degF;
    cooling_setpoint 74.0 degF;
    air_temperature 70.4 degF;
    mass_temperature 70.4 degF;
    heating_system_type RESISTANCE;
    cooling_system_type ELECTRIC;
    weather climate1;
}

object triplex_meter { name meter_117; phases AS; nominal_voltage 120; }
object house {
    name house_117;
    parent meter_117;
    floor_area 1264.7 sf;
    ceiling_height 8.5 ft;
    Rroof 27.7;
    Rwall 16.6;
    Rfloor 10.1;
    Rwindows 4.99;
    air_change_per_hour 0.51;
    heating_setpoint 69.5 degF;
    cooling_setpoint 76.8 degF;
    air_temperature 72.0 degF;
    mass_temperature 72.0 degF;
    heating_system_type RESISTANCE;
    cooling_system_type ELECTRIC;
    weather climate1;
}

object triplex_meter { name meter_118; phases AS; nominal_voltage 120; }
object house {
    name house_118;
    parent meter_118;
    floor_area 2633.4 sf;
    ceiling_height 11.2 ft;
    Rroof 22.2;
    Rwall 27.2;
    Rfloor 10.6;
    Rwindows 2.07;
    air_change_per_hour 1.41;
    heating_setpoint 71.4 degF;
    cooling_setpoint 76.3 degF;
    air_temperature 72.6 degF;
    mass_temperature 72.6 degF;
...